IARC-Check program - Tuesday 04 December 2018-22:40
Input file: C:\Users\jonttu\Documents\projects\iarccrgtools\inst\iarc_check.txt
Output file: C:\Users\jonttu\Documents\projects\iarccrgtools\inst\output.txt

5 records processed. Summary statistics:

10 errors (5 individual records) recorded in C:\Users\jonttu\Documents\projects\iarccrgtools\inst\iarc_check.err:

5 invalid ICDO-3 (M) code
5 invalid age
